3a
     RDKit          3D

  0  0  0  0  0  0  0  0  0  0999 V3000
M  V30 BEGIN CTAB
M  V30 COUNTS 40 41 0 0 1
M  V30 BEGIN ATOM
M  V30 1 H -0.775000 -2.840000 -3.290000 0
M  V30 2 C -1.149000 -1.925000 -3.776000 0
M  V30 3 C -2.059000 0.413000 -5.010000 0
M  V30 4 C -0.302000 -0.826000 -3.941000 0 CFG=2
M  V30 5 C -2.467000 -1.853000 -4.228000 0
M  V30 6 C -2.909000 -0.679000 -4.843000 0
M  V30 7 C -0.749000 0.350000 -4.559000 0
M  V30 8 H -0.075000 1.204000 -4.690000 0
M  V30 9 H -2.433000 1.321000 -5.498000 0
M  V30 10 C -3.385000 -3.007000 -4.057000 0
M  V30 11 H -2.889000 -3.870000 -3.596000 0
M  V30 12 H -3.789000 -3.328000 -5.027000 0
M  V30 13 H -4.237000 -2.730000 -3.422000 0
M  V30 14 Cl -4.497000 -0.564000 -5.400000 0
M  V30 15 O 1.037000 -0.811000 -3.579000 0
M  V30 16 C 1.467000 -1.787000 -2.653000 0
M  V30 17 H 0.961000 -2.766000 -2.808000 0
M  V30 18 H 2.536000 -1.900000 -2.906000 0
M  V30 19 C 1.301000 -1.329000 -1.199000 0 CFG=1
M  V30 20 O 0.806000 -2.046000 -0.346000 0
M  V30 21 N 1.868000 -0.059000 -0.848000 0
M  V30 22 H 1.888000 0.591000 -1.605000 0
M  V30 23 N 1.476000 0.664000 0.289000 0
M  V30 24 C 1.513000 0.165000 1.488000 0
M  V30 25 H 1.789000 -0.879000 1.720000 0
M  V30 26 C 1.162000 1.020000 2.631000 0
M  V30 27 C 0.485000 2.605000 4.849000 0
M  V30 28 C 0.337000 2.139000 2.482000 0
M  V30 29 C 1.653000 0.693000 3.901000 0
M  V30 30 C 1.313000 1.490000 5.010000 0
M  V30 31 C 0.005000 2.918000 3.583000 0
M  V30 32 H -0.051000 2.407000 1.493000 0
M  V30 33 H -0.643000 3.792000 3.454000 0
M  V30 34 H 0.209000 3.236000 5.702000 0
M  V30 35 Cl 2.654000 -0.647000 4.116000 0
M  V30 36 O 1.858000 1.067000 6.205000 0
M  V30 37 C 1.561000 1.819000 7.355000 0
M  V30 38 H 0.490000 1.825000 7.584000 0
M  V30 39 H 1.930000 2.849000 7.287000 0
M  V30 40 H 2.108000 1.275000 8.131000 0
M  V30 END ATOM
M  V30 BEGIN BOND
M  V30 1 1 2 1
M  V30 2 1 4 2
M  V30 3 1 5 2
M  V30 4 1 6 3
M  V30 5 1 6 5
M  V30 6 1 7 3
M  V30 7 1 7 4
M  V30 8 1 8 7
M  V30 9 1 9 3
M  V30 10 1 10 5
M  V30 11 1 11 10
M  V30 12 1 12 10
M  V30 13 1 13 10
M  V30 14 1 14 6
M  V30 15 1 4 15 CFG=3
M  V30 16 1 16 15
M  V30 17 1 17 16
M  V30 18 1 18 16
M  V30 19 1 19 16
M  V30 20 1 19 20 CFG=1
M  V30 21 1 21 19
M  V30 22 1 22 21
M  V30 23 1 23 21
M  V30 24 1 24 23
M  V30 25 1 25 24
M  V30 26 1 26 24
M  V30 27 1 28 26
M  V30 28 1 29 26
M  V30 29 1 30 27
M  V30 30 1 30 29
M  V30 31 1 31 27
M  V30 32 1 31 28
M  V30 33 1 32 28
M  V30 34 1 33 31
M  V30 35 1 34 27
M  V30 36 1 35 29
M  V30 37 1 36 30
M  V30 38 1 37 36
M  V30 39 1 38 37
M  V30 40 1 39 37
M  V30 41 1 40 37
M  V30 END BOND
M  V30 END CTAB
M  END
>  <i_m_Source_File_Index>  (1) 
1

>  <s_m_Source_File>  (1) 
3a.pdb

>  <s_m_Source_Path>  (1) 
examples/ligands

>  <s_m_entry_id>  (1) 
1

>  <s_m_entry_name>  (1) 
3a.1

>  <s_pdb_PDB_ID>  (1) 


>  <s_pdb_PDB_format_version>  (1) 
3.0

$$$$
