3b
     RDKit          3D

  0  0  0  0  0  0  0  0  0  0999 V3000
M  V30 BEGIN CTAB
M  V30 COUNTS 38 39 0 0 1
M  V30 BEGIN ATOM
M  V30 1 H 3.916000 -1.373000 0.450000 0
M  V30 2 C 3.314000 -1.706000 1.308000 0
M  V30 3 C 1.751000 -2.566000 3.479000 0
M  V30 4 C 2.116000 -2.397000 1.101000 0 CFG=2
M  V30 5 C 3.725000 -1.444000 2.607000 0
M  V30 6 C 2.949000 -1.872000 3.682000 0
M  V30 7 C 1.331000 -2.830000 2.176000 0
M  V30 8 H 4.659000 -0.901000 2.792000 0
M  V30 9 H 0.397000 -3.378000 1.999000 0
M  V30 10 Cl 3.476000 -1.538000 5.248000 0
M  V30 11 C 0.937000 -3.011000 4.637000 0
M  V30 12 H 1.525000 -3.667000 5.295000 0
M  V30 13 H 0.039000 -3.561000 4.330000 0
M  V30 14 H 0.615000 -2.148000 5.237000 0
M  V30 15 O 1.636000 -2.769000 -0.148000 0
M  V30 16 C 2.122000 -2.051000 -1.263000 0
M  V30 17 H 3.194000 -1.776000 -1.152000 0
M  V30 18 H 2.033000 -2.790000 -2.079000 0
M  V30 19 C 1.280000 -0.806000 -1.566000 0 CFG=1
M  V30 20 O 1.784000 0.282000 -1.787000 0
M  V30 21 N -0.136000 -0.996000 -1.709000 0
M  V30 22 H -0.491000 -1.757000 -1.169000 0
M  V30 23 N -1.055000 0.060000 -1.561000 0
M  V30 24 C -1.002000 1.145000 -2.287000 0
M  V30 25 H -0.201000 1.360000 -3.014000 0
M  V30 26 C -2.048000 2.153000 -2.127000 0
M  V30 27 C -4.008000 4.168000 -1.913000 0
M  V30 28 C -1.928000 3.336000 -2.875000 0
M  V30 29 C -3.156000 1.997000 -1.272000 0
M  V30 30 C -4.133000 3.011000 -1.173000 0
M  V30 31 C -2.898000 4.327000 -2.766000 0
M  V30 32 H -1.065000 3.467000 -3.541000 0
M  V30 33 H -4.991000 2.872000 -0.505000 0
M  V30 34 H -4.762000 4.960000 -1.840000 0
M  V30 35 O -3.375000 0.901000 -0.501000 0
M  V30 36 H -2.642000 0.291000 -0.641000 0
M  V30 37 O -2.851000 5.507000 -3.465000 0
M  V30 38 H -2.058000 5.502000 -3.987000 0
M  V30 END ATOM
M  V30 BEGIN BOND
M  V30 1 1 2 1
M  V30 2 1 4 2
M  V30 3 1 5 2
M  V30 4 1 6 3
M  V30 5 1 6 5
M  V30 6 1 7 3
M  V30 7 1 7 4
M  V30 8 1 8 5
M  V30 9 1 9 7
M  V30 10 1 10 6
M  V30 11 1 11 3
M  V30 12 1 12 11
M  V30 13 1 13 11
M  V30 14 1 14 11
M  V30 15 1 4 15 CFG=1
M  V30 16 1 16 15
M  V30 17 1 17 16
M  V30 18 1 18 16
M  V30 19 1 19 16
M  V30 20 1 19 20 CFG=3
M  V30 21 1 21 19
M  V30 22 1 22 21
M  V30 23 1 23 21
M  V30 24 1 24 23
M  V30 25 1 25 24
M  V30 26 1 26 24
M  V30 27 1 28 26
M  V30 28 1 29 26
M  V30 29 1 30 27
M  V30 30 1 30 29
M  V30 31 1 31 27
M  V30 32 1 31 28
M  V30 33 1 32 28
M  V30 34 1 33 30
M  V30 35 1 34 27
M  V30 36 1 35 29
M  V30 37 1 36 35
M  V30 38 1 37 31
M  V30 39 1 38 37
M  V30 END BOND
M  V30 END CTAB
M  END
>  <i_m_Source_File_Index>  (1) 
1

>  <s_m_Source_File>  (1) 
3b.pdb

>  <s_m_Source_Path>  (1) 
examples/ligands

>  <s_m_entry_id>  (1) 
2

>  <s_m_entry_name>  (1) 
3b.1

>  <s_pdb_PDB_ID>  (1) 


>  <s_pdb_PDB_format_version>  (1) 
3.0

$$$$
