3c
     RDKit          3D

  0  0  0  0  0  0  0  0  0  0999 V3000
M  V30 BEGIN CTAB
M  V30 COUNTS 40 41 0 0 1
M  V30 BEGIN ATOM
M  V30 1 H -2.284000 3.812000 1.335000 0
M  V30 2 C -2.766000 2.951000 1.822000 0
M  V30 3 C -4.004000 0.741000 3.036000 0
M  V30 4 C -3.294000 1.912000 1.051000 0 CFG=1
M  V30 5 C -2.856000 2.878000 3.206000 0
M  V30 6 C -3.470000 1.782000 3.805000 0
M  V30 7 C -3.914000 0.807000 1.647000 0
M  V30 8 H -2.445000 3.681000 3.829000 0
M  V30 9 H -4.331000 0.001000 1.029000 0
M  V30 10 Cl -3.564000 1.723000 5.488000 0
M  V30 11 C -4.655000 -0.419000 3.695000 0
M  V30 12 H -5.086000 -1.122000 2.971000 0
M  V30 13 H -5.461000 -0.085000 4.362000 0
M  V30 14 H -3.929000 -0.971000 4.308000 0
M  V30 15 O -3.314000 1.900000 -0.337000 0
M  V30 16 C -2.409000 2.758000 -1.001000 0
M  V30 17 H -2.924000 2.951000 -1.959000 0
M  V30 18 H -2.280000 3.726000 -0.468000 0
M  V30 19 C -1.046000 2.100000 -1.246000 0 CFG=2
M  V30 20 O 0.003000 2.690000 -1.044000 0
M  V30 21 N -1.046000 0.796000 -1.844000 0
M  V30 22 H -1.859000 0.258000 -1.628000 0
M  V30 23 N 0.044000 -0.081000 -1.770000 0
M  V30 24 C 1.248000 0.248000 -2.133000 0
M  V30 25 H 1.539000 1.261000 -2.461000 0
M  V30 26 C 2.317000 -0.758000 -2.094000 0
M  V30 27 C 4.413000 -2.572000 -2.048000 0
M  V30 28 C 3.632000 -0.319000 -2.294000 0
M  V30 29 C 2.064000 -2.115000 -1.872000 0
M  V30 30 C 3.110000 -3.031000 -1.849000 0
M  V30 31 C 4.689000 -1.219000 -2.271000 0
M  V30 32 H 3.835000 0.745000 -2.467000 0
M  V30 33 H 1.037000 -2.469000 -1.715000 0
M  V30 34 H 2.913000 -4.096000 -1.676000 0
M  V30 35 H 5.718000 -0.878000 -2.427000 0
M  V30 36 O 5.459000 -3.492000 -2.161000 0
M  V30 37 C 6.058000 -3.902000 -0.978000 0
M  V30 38 F 6.632000 -2.898000 -0.300000 0
M  V30 39 F 5.219000 -4.543000 -0.154000 0
M  V30 40 F 7.005000 -4.751000 -1.385000 0
M  V30 END ATOM
M  V30 BEGIN BOND
M  V30 1 1 2 1
M  V30 2 1 4 2
M  V30 3 1 5 2
M  V30 4 1 6 3
M  V30 5 1 6 5
M  V30 6 1 7 3
M  V30 7 1 7 4
M  V30 8 1 8 5
M  V30 9 1 9 7
M  V30 10 1 10 6
M  V30 11 1 11 3
M  V30 12 1 12 11
M  V30 13 1 13 11
M  V30 14 1 14 11
M  V30 15 1 4 15 CFG=3
M  V30 16 1 16 15
M  V30 17 1 17 16
M  V30 18 1 18 16
M  V30 19 1 19 16
M  V30 20 1 19 20 CFG=3
M  V30 21 1 21 19
M  V30 22 1 22 21
M  V30 23 1 23 21
M  V30 24 1 24 23
M  V30 25 1 25 24
M  V30 26 1 26 24
M  V30 27 1 28 26
M  V30 28 1 29 26
M  V30 29 1 30 27
M  V30 30 1 30 29
M  V30 31 1 31 27
M  V30 32 1 31 28
M  V30 33 1 32 28
M  V30 34 1 33 29
M  V30 35 1 34 30
M  V30 36 1 35 31
M  V30 37 1 36 27
M  V30 38 1 37 36
M  V30 39 1 38 37
M  V30 40 1 39 37
M  V30 41 1 40 37
M  V30 END BOND
M  V30 END CTAB
M  END
>  <i_m_Source_File_Index>  (1) 
1

>  <s_m_Source_File>  (1) 
3c.pdb

>  <s_m_Source_Path>  (1) 
examples/ligands

>  <s_m_entry_id>  (1) 
3

>  <s_m_entry_name>  (1) 
3c.1

>  <s_pdb_PDB_ID>  (1) 


>  <s_pdb_PDB_format_version>  (1) 
3.0

$$$$
