3d
     RDKit          3D

  0  0  0  0  0  0  0  0  0  0999 V3000
M  V30 BEGIN CTAB
M  V30 COUNTS 40 41 0 0 1
M  V30 BEGIN ATOM
M  V30 1 H 1.359000 3.457000 2.078000 0
M  V30 2 C 0.430000 3.735000 1.567000 0
M  V30 3 C -1.962000 4.450000 0.270000 0
M  V30 4 C -0.758000 3.030000 1.804000 0 CFG=2
M  V30 5 C 0.410000 4.800000 0.678000 0
M  V30 6 C -0.776000 5.152000 0.035000 0
M  V30 7 C -1.950000 3.382000 1.166000 0
M  V30 8 H 1.325000 5.369000 0.476000 0
M  V30 9 H -2.872000 2.815000 1.371000 0
M  V30 10 Cl -0.761000 6.448000 -1.043000 0
M  V30 11 C -3.216000 4.837000 -0.424000 0
M  V30 12 H -3.471000 5.884000 -0.208000 0
M  V30 13 H -4.068000 4.214000 -0.124000 0
M  V30 14 H -3.098000 4.745000 -1.512000 0
M  V30 15 O -0.646000 2.023000 2.752000 0
M  V30 16 C -1.676000 1.056000 2.791000 0
M  V30 17 H -1.647000 0.722000 3.844000 0
M  V30 18 H -2.676000 1.499000 2.589000 0
M  V30 19 C -1.416000 -0.122000 1.846000 0 CFG=2
M  V30 20 O -2.291000 -0.583000 1.132000 0
M  V30 21 N -0.129000 -0.751000 1.922000 0
M  V30 22 H 0.601000 -0.130000 2.201000 0
M  V30 23 N 0.395000 -1.542000 0.888000 0
M  V30 24 C -0.232000 -2.572000 0.400000 0
M  V30 25 H -1.251000 -2.870000 0.701000 0
M  V30 26 C 0.413000 -3.400000 -0.627000 0
M  V30 27 C 1.525000 -5.045000 -2.588000 0
M  V30 28 C 1.740000 -3.202000 -1.019000 0
M  V30 29 C -0.349000 -4.415000 -1.215000 0
M  V30 30 C 0.198000 -5.236000 -2.191000 0
M  V30 31 C 2.304000 -4.021000 -2.000000 0
M  V30 32 H 2.330000 -2.402000 -0.552000 0
M  V30 33 H -1.391000 -4.567000 -0.908000 0
M  V30 34 H -0.402000 -6.029000 -2.651000 0
M  V30 35 F 2.052000 -5.840000 -3.531000 0
M  V30 36 O 3.596000 -3.935000 -2.473000 0
M  V30 37 C 4.413000 -2.920000 -1.943000 0
M  V30 38 H 4.020000 -1.918000 -2.147000 0
M  V30 39 H 5.349000 -3.075000 -2.487000 0
M  V30 40 H 4.580000 -3.041000 -0.866000 0
M  V30 END ATOM
M  V30 BEGIN BOND
M  V30 1 1 2 1
M  V30 2 1 4 2
M  V30 3 1 5 2
M  V30 4 1 6 3
M  V30 5 1 6 5
M  V30 6 1 7 3
M  V30 7 1 7 4
M  V30 8 1 8 5
M  V30 9 1 9 7
M  V30 10 1 10 6
M  V30 11 1 11 3
M  V30 12 1 12 11
M  V30 13 1 13 11
M  V30 14 1 14 11
M  V30 15 1 4 15 CFG=1
M  V30 16 1 16 15
M  V30 17 1 17 16
M  V30 18 1 18 16
M  V30 19 1 19 16
M  V30 20 1 19 20 CFG=1
M  V30 21 1 21 19
M  V30 22 1 22 21
M  V30 23 1 23 21
M  V30 24 1 24 23
M  V30 25 1 25 24
M  V30 26 1 26 24
M  V30 27 1 28 26
M  V30 28 1 29 26
M  V30 29 1 30 27
M  V30 30 1 30 29
M  V30 31 1 31 27
M  V30 32 1 31 28
M  V30 33 1 32 28
M  V30 34 1 33 29
M  V30 35 1 34 30
M  V30 36 1 35 27
M  V30 37 1 36 31
M  V30 38 1 37 36
M  V30 39 1 38 37
M  V30 40 1 39 37
M  V30 41 1 40 37
M  V30 END BOND
M  V30 END CTAB
M  END
>  <i_m_Source_File_Index>  (1) 
1

>  <s_m_Source_File>  (1) 
3d.pdb

>  <s_m_Source_Path>  (1) 
examples/ligands

>  <s_m_entry_id>  (1) 
4

>  <s_m_entry_name>  (1) 
3d.1

>  <s_pdb_PDB_ID>  (1) 


>  <s_pdb_PDB_format_version>  (1) 
3.0

$$$$
