3e
     RDKit          3D

  0  0  0  0  0  0  0  0  0  0999 V3000
M  V30 BEGIN CTAB
M  V30 COUNTS 42 43 0 0 1
M  V30 BEGIN ATOM
M  V30 1 H -0.415000 4.309000 0.359000 0
M  V30 2 C -1.420000 3.889000 0.514000 0
M  V30 3 C -3.973000 2.794000 0.934000 0
M  V30 4 C -1.625000 2.896000 1.477000 0 CFG=2
M  V30 5 C -2.498000 4.329000 -0.243000 0
M  V30 6 C -3.762000 3.785000 -0.032000 0
M  V30 7 C -2.895000 2.345000 1.694000 0
M  V30 8 H -2.358000 5.103000 -1.005000 0
M  V30 9 H -3.042000 1.571000 2.457000 0
M  V30 10 Cl -5.052000 4.341000 -0.966000 0
M  V30 11 C -5.329000 2.227000 1.142000 0
M  V30 12 H -6.045000 3.020000 1.400000 0
M  V30 13 H -5.351000 1.480000 1.946000 0
M  V30 14 H -5.691000 1.743000 0.224000 0
M  V30 15 O -0.640000 2.422000 2.332000 0
M  V30 16 C 0.702000 2.620000 1.937000 0
M  V30 17 H 0.851000 3.600000 1.433000 0
M  V30 18 H 1.233000 2.640000 2.906000 0
M  V30 19 C 1.231000 1.482000 1.057000 0 CFG=1
M  V30 20 O 1.884000 1.696000 0.048000 0
M  V30 21 N 1.041000 0.142000 1.530000 0
M  V30 22 H 0.219000 0.031000 2.086000 0
M  V30 23 N 1.092000 -0.972000 0.668000 0
M  V30 24 C 2.141000 -1.257000 -0.037000 0
M  V30 25 H 3.054000 -0.640000 -0.094000 0
M  V30 26 C 2.135000 -2.485000 -0.858000 0
M  V30 27 C 2.186000 -4.782000 -2.434000 0
M  V30 28 C 1.749000 -2.417000 -2.203000 0
M  V30 29 C 2.555000 -3.701000 -0.304000 0
M  V30 30 C 2.576000 -4.846000 -1.102000 0
M  V30 31 C 1.778000 -3.574000 -2.984000 0
M  V30 32 H 2.904000 -5.801000 -0.675000 0
M  V30 33 H 1.477000 -3.527000 -4.036000 0
M  V30 34 H 2.203000 -5.686000 -3.052000 0
M  V30 35 C 2.977000 -3.798000 1.118000 0
M  V30 36 H 3.561000 -2.920000 1.426000 0
M  V30 37 H 3.594000 -4.687000 1.304000 0
M  V30 38 H 2.100000 -3.862000 1.777000 0
M  V30 39 C 1.306000 -1.136000 -2.815000 0
M  V30 40 H 1.908000 -0.288000 -2.459000 0
M  V30 41 H 0.258000 -0.930000 -2.560000 0
M  V30 42 H 1.381000 -1.157000 -3.911000 0
M  V30 END ATOM
M  V30 BEGIN BOND
M  V30 1 1 2 1
M  V30 2 1 4 2
M  V30 3 1 5 2
M  V30 4 1 6 3
M  V30 5 1 6 5
M  V30 6 1 7 3
M  V30 7 1 7 4
M  V30 8 1 8 5
M  V30 9 1 9 7
M  V30 10 1 10 6
M  V30 11 1 11 3
M  V30 12 1 12 11
M  V30 13 1 13 11
M  V30 14 1 14 11
M  V30 15 1 4 15 CFG=1
M  V30 16 1 16 15
M  V30 17 1 17 16
M  V30 18 1 18 16
M  V30 19 1 19 16
M  V30 20 1 19 20 CFG=1
M  V30 21 1 21 19
M  V30 22 1 22 21
M  V30 23 1 23 21
M  V30 24 1 24 23
M  V30 25 1 25 24
M  V30 26 1 26 24
M  V30 27 1 28 26
M  V30 28 1 29 26
M  V30 29 1 30 27
M  V30 30 1 30 29
M  V30 31 1 31 27
M  V30 32 1 31 28
M  V30 33 1 32 30
M  V30 34 1 33 31
M  V30 35 1 34 27
M  V30 36 1 35 29
M  V30 37 1 36 35
M  V30 38 1 37 35
M  V30 39 1 38 35
M  V30 40 1 39 28
M  V30 41 1 40 39
M  V30 42 1 41 39
M  V30 43 1 42 39
M  V30 END BOND
M  V30 END CTAB
M  END
>  <i_m_Source_File_Index>  (1) 
1

>  <s_m_Source_File>  (1) 
3e.pdb

>  <s_m_Source_Path>  (1) 
examples/ligands

>  <s_m_entry_id>  (1) 
5

>  <s_m_entry_name>  (1) 
3e.1

>  <s_pdb_PDB_ID>  (1) 


>  <s_pdb_PDB_format_version>  (1) 
3.0

$$$$
